 Abaqus/Standard Learning Edition 2024                  DATE 28-Apr-2025 TIME 14:13:42
 SUMMARY OF JOB INFORMATION:
 STEP  INC ATT SEVERE EQUIL TOTAL  TOTAL      STEP       INC OF       DOF    IF
               DISCON ITERS ITERS  TIME/    TIME/LPF    TIME/LPF    MONITOR RIKS
               ITERS               FREQ
   1     1   1     0     1     1  0.100      0.100      0.1000    
   1     2   1     0     1     1  0.200      0.200      0.1000    
   1     3   1     0     1     1  0.300      0.300      0.1000    
   1     4   1     0     1     1  0.500      0.500      0.2000    
   1     5   1     0     1     1  0.900      0.900      0.4000    
   1     6   1     0     1     1  1.30       1.30       0.4000    
   1     7   1     0     1     1  1.70       1.70       0.4000    
   1     8   1     0     1     1  2.10       2.10       0.4000    
   1     9   1     0     1     1  2.89       2.89       0.7851    
   1    10   1     0     1     1  3.67       3.67       0.7851    
   1    11   1     0     1     1  4.46       4.46       0.7851    
   1    12   1     0     1     1  5.24       5.24       0.7851    
   1    13   1     0     1     1  6.81       6.81       1.570     
   1    14   1     0     1     1  8.38       8.38       1.570     
   1    15   1     0     1     1  9.95       9.95       1.570     
   1    16   1     0     1     1  13.1       13.1       3.140     
   1    17   1     0     1     1  16.2       16.2       3.140     
   1    18   1     0     1     1  19.4       19.4       3.140     
   1    19   1     0     1     1  25.5       25.5       6.163     
   1    20   1     0     1     1  31.7       31.7       6.163     
   1    21   1     0     1     1  37.9       37.9       6.163     
   1    22   1     0     1     1  49.6       49.6       11.77     
   1    23   1     0     1     1  61.4       61.4       11.77     
   1    24   1     0     1     1  73.2       73.2       11.77     
   1    25   1     0     1     1  95.6       95.6       22.45     
   1    26   1     0     1     1  118.       118.       22.45     
   1    27   1     0     1     1  141.       141.       22.45     
   1    28   1     0     1     1  184.       184.       43.19     
   1    29   1     0     1     1  200.       200.       16.29     
                          
 THE ANALYSIS HAS COMPLETED SUCCESSFULLY
